* NGSPICE file created from gf180mcu_as_sc_mcu7t3v3__and2_2.ext - technology: gf180mcuD

.subckt gf180mcu_as_sc_mcu7t3v3__and2_2 VDD VNW VPW VSS B A Y
X0 VDD.t0 B.t1 a_28_68# VNW.t2 pfet_03v3 ad=0.3588p pd=1.9u as=0.3588p ps=1.9u w=1.38u l=0.28u
X1 a_172_68# A.t0 a_28_68# VPW.t3 nfet_03v3 ad=0.26p pd=1.52u as=0.44p ps=2.88u w=1u l=0.28u
X2 Y.t0 a_28_68# VDD.t1 VNW.t0 pfet_03v3 ad=0.3588p pd=1.9u as=0.3588p ps=1.9u w=1.38u l=0.28u
X3 VSS.t2 a_28_68# Y.t3 VPW.t1 nfet_03v3 ad=0.52p pd=3.04u as=0.26p ps=1.52u w=1u l=0.28u
X4 VDD.t2 a_28_68# Y.t1 VNW.t1 pfet_03v3 ad=0.7176p pd=3.8u as=0.3588p ps=1.9u w=1.38u l=0.28u
X5 Y.t2 a_28_68# VSS.t1 VPW.t0 nfet_03v3 ad=0.26p pd=1.52u as=0.26p ps=1.52u w=1u l=0.28u
X6 a_28_68# A.t1 VDD.t3 VNW.t3 pfet_03v3 ad=0.3588p pd=1.9u as=0.6072p ps=3.64u w=1.38u l=0.28u
X7 VSS.t0 B.t0 a_172_68# VPW.t2 nfet_03v3 ad=0.26p pd=1.52u as=0.26p ps=1.52u w=1u l=0.28u
R0 VSS.n1 VSS.n0 6.38659
R1 VSS.n1 VSS.t2 5.2398
R2 VSS.n0 VSS.t1 1.6385
R3 VSS.n0 VSS.t0 1.6385
R4 VSS VSS.n1 0.2885
R5 Y.n2 Y.n1 6.3005
R6 Y.n2 Y.n0 2.94794
R7 Y.n1 Y.t3 1.6385
R8 Y.n1 Y.t2 1.6385
R9 Y.n0 Y.t1 1.31934
R10 Y.n0 Y.t0 1.31934
R11 Y Y.n2 0.0465465
R12 VDD.n2 VDD.t3 13.4002
R13 VDD.n1 VDD.n0 5.28659
R14 VDD.n1 VDD.t2 3.57833
R15 VDD.n0 VDD.t1 1.31934
R16 VDD.n0 VDD.t0 1.31934
R17 VDD.n2 VDD.n1 0.2405
R18 VDD VDD.n2 0.0485
R19 B.n0 B.t1 27.5107
R20 B.n0 B.t0 22.5169
R21 B B.n0 8.02014
R22 A.n0 A.t1 27.2902
R23 A.n0 A.t0 22.7374
R24 A A.n0 8.09156
R25 VNW.t0 VNW.t1 310.079
R26 VNW.t2 VNW.t0 310.079
R27 VNW.t3 VNW.t2 310.079
R28 VNW VNW.t3 259.69
R29 VPW.t0 VPW.t1 1181.82
R30 VPW.t2 VPW.t0 1181.82
R31 VPW.t3 VPW.t2 1181.82
R32 VPW VPW.t3 989.774
C0 VSS VNW 0.00544f
C1 A VSS 0.01271f
C2 a_172_68# VSS 0.00814f
C3 VSS VDD 0.03379f
C4 VSS Y 0.11262f
C5 VSS a_28_68# 0.244f
C6 VNW B 0.07769f
C7 A B 0.08818f
C8 a_172_68# B 0
C9 B VDD 0.01873f
C10 B Y 0
C11 B a_28_68# 0.43668f
C12 A VNW 0.08344f
C13 VNW VDD 0.12834f
C14 VNW Y 0.02198f
C15 VNW a_28_68# 0.1919f
C16 A VDD 0.04399f
C17 a_172_68# VDD 0
C18 A Y 0
C19 VDD Y 0.28024f
C20 A a_28_68# 0.10005f
C21 a_172_68# a_28_68# 0.01319f
C22 VDD a_28_68# 0.20144f
C23 VSS B 0.01447f
C24 Y a_28_68# 0.26767f
C25 VSS VPW 0.39641f
C26 Y VPW 0.04197f
C27 VDD VPW 0.26034f
C28 B VPW 0.30179f
C29 A VPW 0.20993f
C30 VNW VPW 1.56664f
C31 a_28_68# VPW 0.26969f
C32 VNW.t1 VPW 0.1735f
C33 VNW.t0 VPW 0.08515f
C34 VNW.t2 VPW 0.08515f
C35 VNW.t3 VPW 0.07823f
C36 A.t1 VPW 0.08284f
C37 A.t0 VPW 0.06029f
C38 A.n0 VPW 0.10421f
C39 B.t1 VPW 0.14554f
C40 B.t0 VPW 0.10474f
C41 B.n0 VPW 0.18153f
C42 VDD.t3 VPW 0.07074f
C43 VDD.t1 VPW 0.02581f
C44 VDD.t0 VPW 0.02581f
C45 VDD.n0 VPW 0.05177f
C46 VDD.t2 VPW 0.08782f
C47 VDD.n1 VPW 0.31848f
C48 VDD.n2 VPW 0.11238f
C49 Y.t1 VPW 0.05334f
C50 Y.t0 VPW 0.05334f
C51 Y.n0 VPW 0.12809f
C52 Y.t3 VPW 0.03866f
C53 Y.t2 VPW 0.03866f
C54 Y.n1 VPW 0.07731f
C55 Y.n2 VPW 0.28035f
C56 VSS.t1 VPW 0.01496f
C57 VSS.t0 VPW 0.01496f
C58 VSS.n0 VPW 0.03002f
C59 VSS.t2 VPW 0.05195f
C60 VSS.n1 VPW 0.25298f
.ends

* NGSPICE file created from gf180mcu_as_sc_mcu7t3v3__and2_4.ext - technology: gf180mcuD

.subckt gf180mcu_as_sc_mcu7t3v3__and2_4 VDD VNW VPW VSS B A Y
X0 VSS.t0 a_28_68# Y.t6 VPW.t3 nfet_03v3 ad=0.6p pd=3.2u as=0.26p ps=1.52u w=1u l=0.28u
X1 VDD.t5 B.t1 a_28_68# VNW.t4 pfet_03v3 ad=0.3588p pd=1.9u as=0.3588p ps=1.9u w=1.38u l=0.28u
X2 Y.t2 a_28_68# VDD.t2 VNW.t2 pfet_03v3 ad=0.3588p pd=1.9u as=0.3588p ps=1.9u w=1.38u l=0.28u
X3 a_172_68# A.t0 a_28_68# VPW.t5 nfet_03v3 ad=0.26p pd=1.52u as=0.44p ps=2.88u w=1u l=0.28u
X4 Y.t5 a_28_68# VSS.t2 VPW.t2 nfet_03v3 ad=0.26p pd=1.52u as=0.26p ps=1.52u w=1u l=0.28u
X5 Y.t0 a_28_68# VDD.t0 VNW.t0 pfet_03v3 ad=0.3588p pd=1.9u as=0.3588p ps=1.9u w=1.38u l=0.28u
X6 VDD.t3 a_28_68# Y.t7 VNW.t3 pfet_03v3 ad=0.828p pd=3.96u as=0.3588p ps=1.9u w=1.38u l=0.28u
X7 VSS.t3 a_28_68# Y.t4 VPW.t1 nfet_03v3 ad=0.26p pd=1.52u as=0.26p ps=1.52u w=1u l=0.28u
X8 VDD.t1 a_28_68# Y.t1 VNW.t1 pfet_03v3 ad=0.3588p pd=1.9u as=0.3588p ps=1.9u w=1.38u l=0.28u
X9 Y.t3 a_28_68# VSS.t1 VPW.t0 nfet_03v3 ad=0.26p pd=1.52u as=0.26p ps=1.52u w=1u l=0.28u
X10 a_28_68# A.t1 VDD.t4 VNW.t5 pfet_03v3 ad=0.3588p pd=1.9u as=0.6072p ps=3.64u w=1.38u l=0.28u
X11 VSS.t4 B.t0 a_172_68# VPW.t4 nfet_03v3 ad=0.26p pd=1.52u as=0.26p ps=1.52u w=1u l=0.28u
R0 VSS.n3 VSS.n0 6.38659
R1 VSS.n2 VSS.t0 5.2398
R2 VSS.n2 VSS.n1 3.3618
R3 VSS.n1 VSS.t2 1.6385
R4 VSS.n1 VSS.t3 1.6385
R5 VSS.n0 VSS.t1 1.6385
R6 VSS.n0 VSS.t4 1.6385
R7 VSS VSS.n3 0.2885
R8 VSS.n3 VSS.n2 0.2405
R9 Y.n2 Y.n1 6.51572
R10 Y.n6 Y.n5 6.3005
R11 Y.n2 Y.n0 2.94485
R12 Y.n4 Y.n3 2.82721
R13 Y.n5 Y.t6 1.6385
R14 Y.n5 Y.t5 1.6385
R15 Y.n1 Y.t4 1.6385
R16 Y.n1 Y.t3 1.6385
R17 Y.n3 Y.t7 1.31934
R18 Y.n3 Y.t2 1.31934
R19 Y.n0 Y.t1 1.31934
R20 Y.n0 Y.t0 1.31934
R21 Y.n4 Y.n2 0.581587
R22 Y.n6 Y.n4 0.157715
R23 Y Y.n6 0.0449304
R24 VDD.n4 VDD.t4 13.4002
R25 VDD.n3 VDD.n0 5.28659
R26 VDD.n2 VDD.t3 3.57833
R27 VDD.n2 VDD.n1 2.01949
R28 VDD.n0 VDD.t0 1.31934
R29 VDD.n0 VDD.t5 1.31934
R30 VDD.n1 VDD.t2 1.31934
R31 VDD.n1 VDD.t1 1.31934
R32 VDD.n3 VDD.n2 0.2405
R33 VDD.n4 VDD.n3 0.2405
R34 VDD VDD.n4 0.0485
R35 B.n0 B.t1 27.5107
R36 B.n0 B.t0 22.5169
R37 B B.n0 8.02014
R38 A.n0 A.t1 27.2902
R39 A.n0 A.t0 22.7374
R40 A A.n0 8.09156
R41 VNW.t2 VNW.t3 310.079
R42 VNW.t1 VNW.t2 310.079
R43 VNW.t0 VNW.t1 310.079
R44 VNW.t4 VNW.t0 310.079
R45 VNW.t5 VNW.t4 310.079
R46 VNW VNW.t5 259.69
R47 VPW.t2 VPW.t3 1181.82
R48 VPW.t1 VPW.t2 1181.82
R49 VPW.t0 VPW.t1 1181.82
R50 VPW.t4 VPW.t0 1181.82
R51 VPW.t5 VPW.t4 1181.82
R52 VPW VPW.t5 989.774
C0 VSS VNW 0.0057f
C1 Y a_28_68# 0.36498f
C2 B VSS 0.01447f
C3 a_28_68# a_172_68# 0.01319f
C4 A VSS 0.01271f
C5 VDD VSS 0.03611f
C6 Y VNW 0.05154f
C7 Y B 0
C8 Y A 0
C9 Y VDD 0.60631f
C10 B a_172_68# 0
C11 VDD a_172_68# 0
C12 a_28_68# VNW 0.36763f
C13 a_28_68# B 0.43668f
C14 a_28_68# A 0.10005f
C15 a_28_68# VDD 0.26183f
C16 B VNW 0.07769f
C17 A VNW 0.08344f
C18 Y VSS 0.30865f
C19 VDD VNW 0.18711f
C20 A B 0.08818f
C21 VSS a_172_68# 0.00814f
C22 B VDD 0.01873f
C23 A VDD 0.04399f
C24 a_28_68# VSS 0.30112f
C25 VSS VPW 0.49822f
C26 Y VPW 0.04981f
C27 VDD VPW 0.32397f
C28 B VPW 0.30179f
C29 A VPW 0.20993f
C30 VNW VPW 2.09756f
C31 a_28_68# VPW 0.48146f
C32 VNW.t3 VPW 0.20465f
C33 VNW.t2 VPW 0.09574f
C34 VNW.t1 VPW 0.09574f
C35 VNW.t0 VPW 0.09574f
C36 VNW.t4 VPW 0.09574f
C37 VNW.t5 VPW 0.08796f
C38 A.t1 VPW 0.08284f
C39 A.t0 VPW 0.06029f
C40 A.n0 VPW 0.10421f
C41 B.t1 VPW 0.14554f
C42 B.t0 VPW 0.10474f
C43 B.n0 VPW 0.18153f
C44 VDD.t4 VPW 0.08009f
C45 VDD.t0 VPW 0.02922f
C46 VDD.t5 VPW 0.02922f
C47 VDD.n0 VPW 0.05861f
C48 VDD.t2 VPW 0.02922f
C49 VDD.t1 VPW 0.02922f
C50 VDD.n1 VPW 0.0643f
C51 VDD.t3 VPW 0.11131f
C52 VDD.n2 VPW 0.4093f
C53 VDD.n3 VPW 0.17081f
C54 VDD.n4 VPW 0.12724f
C55 Y.t1 VPW 0.05517f
C56 Y.t0 VPW 0.05517f
C57 Y.n0 VPW 0.11886f
C58 Y.t4 VPW 0.03998f
C59 Y.t3 VPW 0.03998f
C60 Y.n1 VPW 0.08111f
C61 Y.n2 VPW 0.20941f
C62 Y.t7 VPW 0.05517f
C63 Y.t2 VPW 0.05517f
C64 Y.n3 VPW 0.12093f
C65 Y.n4 VPW 0.27635f
C66 Y.t6 VPW 0.03998f
C67 Y.t5 VPW 0.03998f
C68 Y.n5 VPW 0.07995f
C69 Y.n6 VPW 0.05375f
C70 VSS.t1 VPW 0.01589f
C71 VSS.t4 VPW 0.01589f
C72 VSS.n0 VPW 0.03189f
C73 VSS.t2 VPW 0.01589f
C74 VSS.t3 VPW 0.01589f
C75 VSS.n1 VPW 0.03334f
C76 VSS.t0 VPW 0.06217f
C77 VSS.n2 VPW 0.28555f
C78 VSS.n3 VPW 0.13996f
.ends

* NGSPICE file created from gf180mcu_as_sc_mcu7t3v3__ao211_2.ext - technology: gf180mcuD

.subckt gf180mcu_as_sc_mcu7t3v3__ao211_2 VDD VNW VPW VSS A B C D Y
X0 a_28_440# B.t1 VDD.t0 VNW.t4 pfet_03v3 ad=0.3588p pd=1.9u as=0.3588p ps=1.9u w=1.38u l=0.28u
X1 a_172_68# A.t0 VSS.t3 VPW.t5 nfet_03v3 ad=0.26p pd=1.52u as=0.44p ps=2.88u w=1u l=0.28u
X2 VDD.t2 a_332_68# Y.t0 VNW.t1 pfet_03v3 ad=0.7176p pd=3.8u as=0.3588p ps=1.9u w=1.38u l=0.28u
X3 VSS.t1 a_332_68# Y.t3 VPW.t1 nfet_03v3 ad=0.52p pd=3.04u as=0.26p ps=1.52u w=1u l=0.28u
X4 a_492_440# C.t1 a_28_440# VNW.t3 pfet_03v3 ad=0.3588p pd=1.9u as=0.3588p ps=1.9u w=1.38u l=0.28u
X5 a_332_68# D.t0 VSS.t2 VPW.t2 nfet_03v3 ad=0.44p pd=2.88u as=0.26p ps=1.52u w=1u l=0.28u
X6 a_332_68# D.t1 a_492_440# VNW.t2 pfet_03v3 ad=0.6072p pd=3.64u as=0.3588p ps=1.9u w=1.38u l=0.28u
X7 Y.t1 a_332_68# VDD.t1 VNW.t0 pfet_03v3 ad=0.3588p pd=1.9u as=0.6072p ps=3.64u w=1.38u l=0.28u
X8 Y.t2 a_332_68# VSS.t0 VPW.t0 nfet_03v3 ad=0.26p pd=1.52u as=0.44p ps=2.88u w=1u l=0.28u
X9 VSS.t4 C.t0 a_332_68# VPW.t3 nfet_03v3 ad=0.26p pd=1.52u as=0.26p ps=1.52u w=1u l=0.28u
X10 VDD.t3 A.t1 a_28_440# VNW.t5 pfet_03v3 ad=0.3588p pd=1.9u as=0.6072p ps=3.64u w=1.38u l=0.28u
X11 a_332_68# B.t0 a_172_68# VPW.t4 nfet_03v3 ad=0.26p pd=1.52u as=0.26p ps=1.52u w=1u l=0.28u
R0 VSS.n1 VSS.t0 10.9684
R1 VSS.n3 VSS.t3 10.8988
R2 VSS.n1 VSS.t1 10.5035
R3 VSS.n2 VSS.n0 6.39441
R4 VSS.n0 VSS.t2 1.6385
R5 VSS.n0 VSS.t4 1.6385
R6 VSS.n3 VSS.n2 0.3605
R7 VSS.n2 VSS.n1 0.2165
R8 VSS VSS.n3 0.0485
R9 Y.n2 Y.n1 6.3005
R10 Y.n2 Y.n0 3.09695
R11 Y.n1 Y.t3 1.6385
R12 Y.n1 Y.t2 1.6385
R13 Y.n0 Y.t0 1.31934
R14 Y.n0 Y.t1 1.31934
R15 Y Y.n2 0.0730806
R16 VDD.n2 VDD.n0 5.30224
R17 VDD.n1 VDD.t2 4.40391
R18 VDD.n1 VDD.t1 3.33441
R19 VDD.n0 VDD.t0 1.31934
R20 VDD.n0 VDD.t3 1.31934
R21 VDD.n2 VDD.n1 0.4565
R22 VDD VDD.n2 0.1685
R23 D.n0 D.t1 26.5024
R24 D.n0 D.t0 23.0798
R25 D D.n0 8.06128
R26 C.n0 C.t1 27.0693
R27 C.n0 C.t0 22.5129
R28 C C.n0 8.04842
R29 B.n0 B.t1 27.1997
R30 B.n0 B.t0 22.3825
R31 B B.n0 8.1057
R32 A.n0 A.t1 26.618
R33 A.n0 A.t0 21.5414
R34 A A.n0 8.05193
R35 VNW.t2 VNW.t0 558.14
R36 VNW.t0 VNW.t1 310.079
R37 VNW.t3 VNW.t2 310.079
R38 VNW.t4 VNW.t3 310.079
R39 VNW.t5 VNW.t4 310.079
R40 VNW VNW.t5 259.69
R41 VPW.t2 VPW.t0 2127.27
R42 VPW.t0 VPW.t1 1181.82
R43 VPW.t3 VPW.t2 1181.82
R44 VPW.t4 VPW.t3 1181.82
R45 VPW.t5 VPW.t4 1181.82
R46 VPW VPW.t5 989.774
C0 a_332_68# Y 0.14623f
C1 a_332_68# D 0.24708f
C2 B A 0.1065f
C3 VNW a_28_440# 0.01588f
C4 a_332_68# VSS 0.29425f
C5 C a_492_440# 0
C6 Y VSS 0.04557f
C7 a_332_68# VDD 0.33063f
C8 VSS D 0.01781f
C9 A a_28_440# 0.05839f
C10 Y VDD 0.26252f
C11 D VDD 0.02927f
C12 VSS VDD 0.02965f
C13 VSS a_172_68# 0.01004f
C14 a_332_68# VNW 0.22774f
C15 Y VNW 0.01231f
C16 VNW D 0.08458f
C17 a_332_68# A 0
C18 VSS VNW 0.00739f
C19 A D 0
C20 a_28_440# a_492_440# 0.00324f
C21 VNW VDD 0.19008f
C22 VSS A 0.03755f
C23 B C 0.11544f
C24 A VDD 0.01522f
C25 a_332_68# a_492_440# 0.0124f
C26 C a_28_440# 0.0073f
C27 VNW A 0.09409f
C28 D a_492_440# 0.00373f
C29 a_492_440# VDD 0.01267f
C30 a_332_68# C 0.06824f
C31 B a_28_440# 0.0527f
C32 C D 0.11359f
C33 VSS C 0.01519f
C34 C VDD 0.02827f
C35 A a_492_440# 0
C36 B a_332_68# 0.11634f
C37 B Y 0
C38 B D 0.0022f
C39 VNW C 0.07741f
C40 B VSS 0.08953f
C41 a_332_68# a_28_440# 0.02741f
C42 A C 0
C43 B VDD 0.0166f
C44 a_28_440# D 0.00192f
C45 B a_172_68# 0.00862f
C46 VSS a_28_440# 0.01667f
C47 a_28_440# VDD 0.2046f
C48 a_28_440# a_172_68# 0.00272f
C49 B VNW 0.07746f
C50 VSS VPW 0.45701f
C51 Y VPW 0.05876f
C52 VDD VPW 0.37885f
C53 D VPW 0.22361f
C54 C VPW 0.19002f
C55 B VPW 0.18056f
C56 A VPW 0.21857f
C57 VNW VPW 2.26475f
C58 a_28_440# VPW 0.01738f
C59 a_332_68# VPW 0.26837f
C60 VNW.t1 VPW 0.18272f
C61 VNW.t0 VPW 0.12555f
C62 VNW.t2 VPW 0.12555f
C63 VNW.t3 VPW 0.08968f
C64 VNW.t4 VPW 0.08968f
C65 VNW.t5 VPW 0.08239f
C66 A.t1 VPW 0.07471f
C67 A.t0 VPW 0.05357f
C68 A.n0 VPW 0.11093f
C69 B.t1 VPW 0.17202f
C70 B.t0 VPW 0.12381f
C71 B.n0 VPW 0.22458f
C72 C.t1 VPW 0.1074f
C73 C.t0 VPW 0.07775f
C74 C.n0 VPW 0.13971f
C75 D.t1 VPW 0.12214f
C76 D.t0 VPW 0.09052f
C77 D.n0 VPW 0.1607f
C78 VDD.t0 VPW 0.0313f
C79 VDD.t3 VPW 0.0313f
C80 VDD.n0 VPW 0.06283f
C81 VDD.t1 VPW 0.0798f
C82 VDD.t2 VPW 0.10834f
C83 VDD.n1 VPW 0.51257f
C84 VDD.n2 VPW 0.23475f
C85 Y.t0 VPW 0.04128f
C86 Y.t1 VPW 0.04128f
C87 Y.n0 VPW 0.09908f
C88 Y.t3 VPW 0.02991f
C89 Y.t2 VPW 0.02991f
C90 Y.n1 VPW 0.05982f
C91 Y.n2 VPW 0.15644f
C92 VSS.t3 VPW 0.03546f
C93 VSS.t2 VPW 0.01219f
C94 VSS.t4 VPW 0.01219f
C95 VSS.n0 VPW 0.02448f
C96 VSS.t0 VPW 0.03545f
C97 VSS.t1 VPW 0.04445f
C98 VSS.n1 VPW 0.18168f
C99 VSS.n2 VPW 0.11719f
C100 VSS.n3 VPW 0.09157f
.ends

* NGSPICE file created from gf180mcu_as_sc_mcu7t3v3__ao211_4.ext - technology: gf180mcuD

.subckt gf180mcu_as_sc_mcu7t3v3__ao211_4 VDD VNW VPW VSS A B C D Y
X0 a_28_440# B.t1 VDD.t5 VNW.t6 pfet_03v3 ad=0.3588p pd=1.9u as=0.3588p ps=1.9u w=1.38u l=0.28u
X1 Y.t5 a_332_68# VSS.t6 VPW.t3 nfet_03v3 ad=0.26p pd=1.52u as=0.26p ps=1.52u w=1u l=0.28u
X2 a_172_68# A.t0 VSS.t0 VPW.t7 nfet_03v3 ad=0.26p pd=1.52u as=0.44p ps=2.88u w=1u l=0.28u
X3 VDD.t2 a_332_68# Y.t2 VNW.t2 pfet_03v3 ad=0.3588p pd=1.9u as=0.3588p ps=1.9u w=1.38u l=0.28u
X4 VSS.t3 a_332_68# Y.t4 VPW.t2 nfet_03v3 ad=0.26p pd=1.52u as=0.26p ps=1.52u w=1u l=0.28u
X5 a_492_440# C.t1 a_28_440# VNW.t5 pfet_03v3 ad=0.3588p pd=1.9u as=0.3588p ps=1.9u w=1.38u l=0.28u
X6 a_332_68# D.t0 VSS.t1 VPW.t0 nfet_03v3 ad=0.44p pd=2.88u as=0.26p ps=1.52u w=1u l=0.28u
X7 Y.t0 a_332_68# VDD.t3 VNW.t3 pfet_03v3 ad=0.3588p pd=1.9u as=0.3588p ps=1.9u w=1.38u l=0.28u
X8 a_332_68# D.t1 a_492_440# VNW.t0 pfet_03v3 ad=0.6072p pd=3.64u as=0.3588p ps=1.9u w=1.38u l=0.28u
X9 Y.t7 a_332_68# VDD.t1 VNW.t1 pfet_03v3 ad=0.3588p pd=1.9u as=0.6072p ps=3.64u w=1.38u l=0.28u
X10 Y.t3 a_332_68# VSS.t4 VPW.t1 nfet_03v3 ad=0.26p pd=1.52u as=0.44p ps=2.88u w=1u l=0.28u
X11 VSS.t2 C.t0 a_332_68# VPW.t5 nfet_03v3 ad=0.26p pd=1.52u as=0.26p ps=1.52u w=1u l=0.28u
X12 VDD.t4 a_332_68# Y.t1 VNW.t4 pfet_03v3 ad=0.828p pd=3.96u as=0.3588p ps=1.9u w=1.38u l=0.28u
X13 VDD.t0 A.t1 a_28_440# VNW.t7 pfet_03v3 ad=0.3588p pd=1.9u as=0.6072p ps=3.64u w=1.38u l=0.28u
X14 VSS.t5 a_332_68# Y.t6 VPW.t4 nfet_03v3 ad=0.6p pd=3.2u as=0.26p ps=1.52u w=1u l=0.28u
X15 a_332_68# B.t0 a_172_68# VPW.t6 nfet_03v3 ad=0.26p pd=1.52u as=0.26p ps=1.52u w=1u l=0.28u
R0 VSS.n3 VSS.t4 10.9684
R1 VSS.n5 VSS.t0 10.8988
R2 VSS.n2 VSS.t5 9.98659
R3 VSS.n4 VSS.n0 6.39441
R4 VSS.n2 VSS.n1 6.38659
R5 VSS.n1 VSS.t6 1.6385
R6 VSS.n1 VSS.t3 1.6385
R7 VSS.n0 VSS.t1 1.6385
R8 VSS.n0 VSS.t2 1.6385
R9 VSS.n5 VSS.n4 0.3605
R10 VSS.n3 VSS.n2 0.2405
R11 VSS.n4 VSS.n3 0.2165
R12 VSS VSS.n5 0.0485
R13 Y.n2 Y.n1 6.3005
R14 Y.n5 Y.n4 6.3005
R15 Y.n6 Y.n3 2.85163
R16 Y.n7 Y.n0 2.85163
R17 Y.n4 Y.t6 1.6385
R18 Y.n4 Y.t5 1.6385
R19 Y.n1 Y.t4 1.6385
R20 Y.n1 Y.t3 1.6385
R21 Y.n3 Y.t1 1.31934
R22 Y.n3 Y.t0 1.31934
R23 Y.n0 Y.t2 1.31934
R24 Y.n0 Y.t7 1.31934
R25 Y.n7 Y 0.388709
R26 Y.n6 Y 0.318403
R27 Y.n7 Y 0.318403
R28 Y.n7 Y.n2 0.148565
R29 Y.n6 Y.n5 0.148565
R30 Y.n2 Y 0.0730806
R31 Y.n5 Y 0.0730806
R32 Y Y.n6 0.0421418
R33 Y Y.n7 0.0421418
R34 VDD.n4 VDD.n0 5.30224
R35 VDD.n2 VDD.t4 4.44304
R36 VDD.n3 VDD.t1 3.33441
R37 VDD.n2 VDD.n1 2.8842
R38 VDD.n0 VDD.t5 1.31934
R39 VDD.n0 VDD.t0 1.31934
R40 VDD.n1 VDD.t3 1.31934
R41 VDD.n1 VDD.t2 1.31934
R42 VDD.n4 VDD.n3 0.4565
R43 VDD.n3 VDD.n2 0.2405
R44 VDD VDD.n4 0.1685
R45 D.n0 D.t1 26.5024
R46 D.n0 D.t0 23.0798
R47 D D.n0 8.06128
R48 C.n0 C.t1 27.0693
R49 C.n0 C.t0 22.5129
R50 C C.n0 8.04842
R51 B.n0 B.t1 27.1997
R52 B.n0 B.t0 22.3825
R53 B B.n0 8.1057
R54 A.n0 A.t1 26.618
R55 A.n0 A.t0 21.5414
R56 A A.n0 8.05193
R57 VNW.t0 VNW.t1 558.14
R58 VNW.t3 VNW.t4 310.079
R59 VNW.t2 VNW.t3 310.079
R60 VNW.t1 VNW.t2 310.079
R61 VNW.t5 VNW.t0 310.079
R62 VNW.t6 VNW.t5 310.079
R63 VNW.t7 VNW.t6 310.079
R64 VNW VNW.t7 259.69
R65 VPW.t0 VPW.t1 2127.27
R66 VPW.t3 VPW.t4 1181.82
R67 VPW.t2 VPW.t3 1181.82
R68 VPW.t1 VPW.t2 1181.82
R69 VPW.t5 VPW.t0 1181.82
R70 VPW.t6 VPW.t5 1181.82
R71 VPW.t7 VPW.t6 1181.82
R72 VPW VPW.t7 989.774
C0 VSS a_332_68# 0.33486f
C1 Y B 0
C2 VNW VSS 0.00766f
C3 Y VDD 0.62258f
C4 VNW a_332_68# 0.40366f
C5 a_172_68# VSS 0.01004f
C6 C VSS 0.01519f
C7 VSS B 0.08954f
C8 C a_332_68# 0.06824f
C9 VSS A 0.03755f
C10 D VSS 0.01781f
C11 VDD VSS 0.03207f
C12 VNW C 0.07741f
C13 a_332_68# B 0.11634f
C14 VSS a_28_440# 0.01667f
C15 VNW B 0.07746f
C16 A a_332_68# 0
C17 D a_332_68# 0.24708f
C18 VDD a_332_68# 0.38851f
C19 VNW A 0.09409f
C20 VNW D 0.08458f
C21 a_332_68# a_28_440# 0.02741f
C22 VNW VDD 0.24738f
C23 VNW a_28_440# 0.01588f
C24 a_172_68# B 0.00862f
C25 C B 0.11544f
C26 C A 0
C27 C D 0.11359f
C28 C VDD 0.02827f
C29 a_172_68# a_28_440# 0.00272f
C30 A B 0.1065f
C31 D B 0.0022f
C32 C a_28_440# 0.0073f
C33 a_492_440# a_332_68# 0.0124f
C34 VDD B 0.0166f
C35 B a_28_440# 0.0527f
C36 D A 0
C37 VDD A 0.01522f
C38 D VDD 0.02927f
C39 A a_28_440# 0.05839f
C40 D a_28_440# 0.00192f
C41 VDD a_28_440# 0.2046f
C42 C a_492_440# 0
C43 a_492_440# A 0
C44 a_492_440# D 0.00373f
C45 a_492_440# VDD 0.01267f
C46 a_492_440# a_28_440# 0.00324f
C47 Y VSS 0.14254f
C48 Y a_332_68# 0.26311f
C49 Y VNW 0.02113f
C50 VSS VPW 0.55292f
C51 Y VPW 0.06155f
C52 VDD VPW 0.45046f
C53 D VPW 0.22361f
C54 C VPW 0.19002f
C55 B VPW 0.18055f
C56 A VPW 0.21857f
C57 VNW VPW 2.78994f
C58 a_28_440# VPW 0.01738f
C59 a_332_68# VPW 0.48026f
C60 VNW.t4 VPW 0.2023f
C61 VNW.t3 VPW 0.09464f
C62 VNW.t2 VPW 0.09464f
C63 VNW.t1 VPW 0.1325f
C64 VNW.t0 VPW 0.1325f
C65 VNW.t5 VPW 0.09464f
C66 VNW.t6 VPW 0.09464f
C67 VNW.t7 VPW 0.08695f
C68 A.t1 VPW 0.07471f
C69 A.t0 VPW 0.05357f
C70 A.n0 VPW 0.11093f
C71 B.t1 VPW 0.17203f
C72 B.t0 VPW 0.12382f
C73 B.n0 VPW 0.22458f
C74 C.t1 VPW 0.1074f
C75 C.t0 VPW 0.07775f
C76 C.n0 VPW 0.13971f
C77 D.t1 VPW 0.12214f
C78 D.t0 VPW 0.09052f
C79 D.n0 VPW 0.1607f
C80 VDD.t5 VPW 0.03327f
C81 VDD.t0 VPW 0.03327f
C82 VDD.n0 VPW 0.06679f
C83 VDD.t1 VPW 0.08483f
C84 VDD.t3 VPW 0.03327f
C85 VDD.t2 VPW 0.03327f
C86 VDD.n1 VPW 0.07073f
C87 VDD.t4 VPW 0.1314f
C88 VDD.n2 VPW 0.45449f
C89 VDD.n3 VPW 0.34396f
C90 VDD.n4 VPW 0.24956f
C91 Y.t2 VPW 0.04194f
C92 Y.t7 VPW 0.04194f
C93 Y.n0 VPW 0.09042f
C94 Y.t4 VPW 0.03039f
C95 Y.t3 VPW 0.03039f
C96 Y.n1 VPW 0.06079f
C97 Y.n2 VPW 0.02754f
C98 Y.t1 VPW 0.04194f
C99 Y.t0 VPW 0.04194f
C100 Y.n3 VPW 0.09042f
C101 Y.t6 VPW 0.03039f
C102 Y.t5 VPW 0.03039f
C103 Y.n4 VPW 0.06079f
C104 Y.n5 VPW 0.02754f
C105 Y.n6 VPW 0.1753f
C106 Y.n7 VPW 0.21975f
C107 VSS.t0 VPW 0.03449f
C108 VSS.t1 VPW 0.01186f
C109 VSS.t2 VPW 0.01186f
C110 VSS.n0 VPW 0.02381f
C111 VSS.t4 VPW 0.03448f
C112 VSS.t6 VPW 0.01186f
C113 VSS.t3 VPW 0.01186f
C114 VSS.n1 VPW 0.0238f
C115 VSS.t5 VPW 0.05042f
C116 VSS.n2 VPW 0.17985f
C117 VSS.n3 VPW 0.09784f
C118 VSS.n4 VPW 0.11399f
C119 VSS.n5 VPW 0.08907f
.ends

* NGSPICE file created from gf180mcu_as_sc_mcu7t3v3__ao21_2.ext - technology: gf180mcuD

.subckt gf180mcu_as_sc_mcu7t3v3__ao21_2 VDD VNW VPW VSS Y A B C
X0 VSS.t0 a_332_68# Y.t3 VPW.t1 nfet_03v3 ad=0.44p pd=2.88u as=0.3025p ps=1.605u w=1u l=0.28u
X1 a_28_440# B.t1 VDD.t2 VNW.t3 pfet_03v3 ad=0.3588p pd=1.9u as=0.3588p ps=1.9u w=1.38u l=0.28u
X2 a_172_68# A.t0 VSS.t2 VPW.t4 nfet_03v3 ad=0.26p pd=1.52u as=0.44p ps=2.88u w=1u l=0.28u
X3 a_332_68# C.t1 a_28_440# VNW.t2 pfet_03v3 ad=0.6072p pd=3.64u as=0.3588p ps=1.9u w=1.38u l=0.28u
X4 Y.t0 a_332_68# VDD.t0 VNW.t0 pfet_03v3 ad=0.41745p pd=1.985u as=0.6072p ps=3.64u w=1.38u l=0.28u
X5 VSS.t3 C.t0 a_332_68# VPW.t2 nfet_03v3 ad=0.58p pd=2.16u as=0.26p ps=1.52u w=1u l=0.28u
X6 Y.t2 a_332_68# VSS.t1 VPW.t0 nfet_03v3 ad=0.3025p pd=1.605u as=0.58p ps=2.16u w=1u l=0.28u
X7 VDD.t1 a_332_68# Y.t1 VNW.t1 pfet_03v3 ad=0.6072p pd=3.64u as=0.41745p ps=1.985u w=1.38u l=0.28u
X8 VDD.t3 A.t1 a_28_440# VNW.t4 pfet_03v3 ad=0.3588p pd=1.9u as=0.6072p ps=3.64u w=1.38u l=0.28u
X9 a_332_68# B.t0 a_172_68# VPW.t3 nfet_03v3 ad=0.26p pd=1.52u as=0.26p ps=1.52u w=1u l=0.28u
R0 VSS.n3 VSS.t2 10.9684
R1 VSS.n0 VSS.t0 5.2353
R2 VSS.n1 VSS.t1 3.6545
R3 VSS.n1 VSS.t3 3.6545
R4 VSS.n2 VSS.n1 3.1505
R5 VSS.n0 VSS 0.52175
R6 VSS.n4 VSS.n3 0.34325
R7 VSS VSS.n4 0.237318
R8 VSS.n3 VSS 0.0485
R9 VSS.n2 VSS.n0 0.0400455
R10 VSS.n4 VSS.n2 0.0400455
R11 Y.n2 Y.n1 6.3005
R12 Y.n2 Y.n0 3.06034
R13 Y.n1 Y.t2 2.174
R14 Y.n0 Y.t0 1.7505
R15 Y.n1 Y.t3 1.6385
R16 Y.n0 Y.t1 1.31934
R17 Y Y.n2 0.0483125
R18 VDD.n2 VDD.n0 5.28659
R19 VDD.n1 VDD.t1 3.59108
R20 VDD.n1 VDD.t0 3.33833
R21 VDD.n0 VDD.t2 1.31934
R22 VDD.n0 VDD.t3 1.31934
R23 VDD.n2 VDD.n1 0.3365
R24 VDD VDD.n2 0.1685
R25 C.n0 C.t1 27.0524
R26 C.n0 C.t0 22.4673
R27 C C.n0 8.05427
R28 B.n0 B.t1 27.2111
R29 B.n0 B.t0 22.3086
R30 B B.n0 8.0566
R31 A.n0 A.t1 27.2905
R32 A.n0 A.t0 22.2292
R33 A A.n0 8.02646
R34 VNW.t2 VNW.t0 558.14
R35 VNW.t0 VNW.t1 343.024
R36 VNW.t3 VNW.t2 310.079
R37 VNW.t4 VNW.t3 310.079
R38 VNW VNW.t4 259.69
R39 VPW.t2 VPW.t0 2127.27
R40 VPW.t0 VPW.t1 1307.39
R41 VPW.t3 VPW.t2 1181.82
R42 VPW.t4 VPW.t3 1181.82
R43 VPW VPW.t4 989.774
C0 VNW A 0.09208f
C1 a_28_440# VSS 0.01381f
C2 Y VNW 0.0216f
C3 a_172_68# VSS 0.01248f
C4 a_28_440# A 0.07442f
C5 C VSS 0.01669f
C6 C A 0.00104f
C7 Y a_172_68# 0
C8 Y C 0
C9 VDD VSS 0.0337f
C10 a_332_68# VSS 0.21926f
C11 a_28_440# VNW 0.01143f
C12 VDD A 0.01567f
C13 a_332_68# A 0.01174f
C14 B VSS 0.03227f
C15 C VNW 0.08383f
C16 Y VDD 0.28885f
C17 Y a_332_68# 0.1365f
C18 B A 0.09244f
C19 a_172_68# a_28_440# 0.00248f
C20 C a_28_440# 0.0081f
C21 Y B 0
C22 VDD VNW 0.19581f
C23 a_332_68# VNW 0.23775f
C24 B VNW 0.07586f
C25 a_28_440# VDD 0.19178f
C26 a_332_68# a_28_440# 0.04896f
C27 a_172_68# a_332_68# 0.00221f
C28 C VDD 0.02901f
C29 C a_332_68# 0.19083f
C30 B a_28_440# 0.04153f
C31 a_172_68# B 0.0025f
C32 B C 0.09012f
C33 VSS A 0.03614f
C34 a_332_68# VDD 0.35316f
C35 Y VSS 0.07945f
C36 B VDD 0.01624f
C37 B a_332_68# 0.00698f
C38 Y A 0
C39 VSS VNW 0.00986f
C40 VSS VPW 0.27542f
C41 Y VPW 0.03486f
C42 VDD VPW 0.36792f
C43 C VPW 0.17008f
C44 B VPW 0.15167f
C45 A VPW 0.23473f
C46 VNW VPW 2.09189f
C47 a_28_440# VPW 0.01714f
C48 a_332_68# VPW 0.26835f
C49 VNW.t1 VPW 0.20601f
C50 VNW.t0 VPW 0.13105f
C51 VNW.t2 VPW 0.12626f
C52 VNW.t3 VPW 0.09018f
C53 VNW.t4 VPW 0.08285f
C54 A.t1 VPW 0.07514f
C55 A.t0 VPW 0.05373f
C56 A.n0 VPW 0.09913f
C57 B.t1 VPW 0.09759f
C58 B.t0 VPW 0.07014f
C59 B.n0 VPW 0.12901f
C60 C.t1 VPW 0.11395f
C61 C.t0 VPW 0.08273f
C62 C.n0 VPW 0.15122f
C63 VDD.t2 VPW 0.03328f
C64 VDD.t3 VPW 0.03328f
C65 VDD.n0 VPW 0.06675f
C66 VDD.t0 VPW 0.08534f
C67 VDD.t1 VPW 0.10264f
C68 VDD.n1 VPW 0.53715f
C69 VDD.n2 VPW 0.20344f
C70 Y.t1 VPW 0.04284f
C71 Y.t0 VPW 0.05685f
C72 Y.n0 VPW 0.1158f
C73 Y.t3 VPW 0.03105f
C74 Y.t2 VPW 0.0412f
C75 Y.n1 VPW 0.07224f
C76 Y.n2 VPW 0.16004f
C77 VSS.t0 VPW 0.0297f
C78 VSS.n0 VPW 0.21075f
C79 VSS.t1 VPW 0.02165f
C80 VSS.t3 VPW 0.02165f
C81 VSS.n1 VPW 0.04329f
C82 VSS.n2 VPW 0.03215f
C83 VSS.t2 VPW 0.02822f
C84 VSS.n3 VPW 0.06966f
C85 VSS.n4 VPW 0.1635f
.ends

* NGSPICE file created from gf180mcu_as_sc_mcu7t3v3__ao21_4.ext - technology: gf180mcuD

.subckt gf180mcu_as_sc_mcu7t3v3__ao21_4 VDD VNW VPW VSS Y A B C
X0 VSS.t3 a_332_68# Y.t5 VPW.t1 nfet_03v3 ad=0.26p pd=1.52u as=0.3025p ps=1.605u w=1u l=0.28u
X1 a_28_440# B.t1 VDD.t0 VNW.t5 pfet_03v3 ad=0.3588p pd=1.9u as=0.3588p ps=1.9u w=1.38u l=0.28u
X2 Y.t1 a_332_68# VDD.t4 VNW.t2 pfet_03v3 ad=0.3588p pd=1.9u as=0.3588p ps=1.9u w=1.38u l=0.28u
X3 a_172_68# A.t0 VSS.t0 VPW.t6 nfet_03v3 ad=0.26p pd=1.52u as=0.44p ps=2.88u w=1u l=0.28u
X4 a_332_68# C.t1 a_28_440# VNW.t4 pfet_03v3 ad=0.6072p pd=3.64u as=0.3588p ps=1.9u w=1.38u l=0.28u
X5 Y.t3 a_332_68# VDD.t2 VNW.t0 pfet_03v3 ad=0.41745p pd=1.985u as=0.6072p ps=3.64u w=1.38u l=0.28u
X6 VDD.t5 a_332_68# Y.t2 VNW.t3 pfet_03v3 ad=0.6279p pd=3.67u as=0.3588p ps=1.9u w=1.38u l=0.28u
X7 VSS.t4 a_332_68# Y.t7 VPW.t3 nfet_03v3 ad=0.455p pd=2.91u as=0.26p ps=1.52u w=1u l=0.28u
X8 VSS.t1 C.t0 a_332_68# VPW.t4 nfet_03v3 ad=0.58p pd=2.16u as=0.26p ps=1.52u w=1u l=0.28u
X9 Y.t6 a_332_68# VSS.t5 VPW.t2 nfet_03v3 ad=0.26p pd=1.52u as=0.26p ps=1.52u w=1u l=0.28u
X10 Y.t4 a_332_68# VSS.t2 VPW.t0 nfet_03v3 ad=0.3025p pd=1.605u as=0.58p ps=2.16u w=1u l=0.28u
X11 VDD.t3 a_332_68# Y.t0 VNW.t1 pfet_03v3 ad=0.3588p pd=1.9u as=0.41745p ps=1.985u w=1.38u l=0.28u
X12 VDD.t1 A.t1 a_28_440# VNW.t6 pfet_03v3 ad=0.3588p pd=1.9u as=0.6072p ps=3.64u w=1.38u l=0.28u
X13 a_332_68# B.t0 a_172_68# VPW.t5 nfet_03v3 ad=0.26p pd=1.52u as=0.26p ps=1.52u w=1u l=0.28u
R0 VSS.n5 VSS.t0 10.9684
R1 VSS.n1 VSS.t4 5.2398
R2 VSS.n3 VSS.t2 3.6545
R3 VSS.n3 VSS.t1 3.6545
R4 VSS.n1 VSS.n0 3.3618
R5 VSS.n4 VSS.n3 3.1505
R6 VSS.n0 VSS.t5 1.6385
R7 VSS.n0 VSS.t3 1.6385
R8 VSS.n2 VSS 0.52175
R9 VSS.n6 VSS.n5 0.34325
R10 VSS VSS.n6 0.237318
R11 VSS.n2 VSS.n1 0.236
R12 VSS.n5 VSS 0.0485
R13 VSS.n4 VSS.n2 0.0400455
R14 VSS.n6 VSS.n4 0.0400455
R15 Y.n2 Y.n1 6.47347
R16 Y.n6 Y.n5 6.3005
R17 Y.n2 Y.n0 2.88737
R18 Y.n4 Y.n3 2.88737
R19 Y.n5 Y.t4 2.174
R20 Y.n3 Y.t3 1.7505
R21 Y.n5 Y.t5 1.6385
R22 Y.n1 Y.t7 1.6385
R23 Y.n1 Y.t6 1.6385
R24 Y.n3 Y.t0 1.31934
R25 Y.n0 Y.t2 1.31934
R26 Y.n0 Y.t1 1.31934
R27 Y.n4 Y.n2 0.50137
R28 Y.n6 Y.n4 0.173469
R29 Y Y.n6 0.0483125
R30 VDD.n4 VDD.n0 5.28659
R31 VDD.n2 VDD.t5 3.57833
R32 VDD.n3 VDD.t2 3.33833
R33 VDD.n2 VDD.n1 2.01949
R34 VDD.n0 VDD.t0 1.31934
R35 VDD.n0 VDD.t1 1.31934
R36 VDD.n1 VDD.t4 1.31934
R37 VDD.n1 VDD.t3 1.31934
R38 VDD.n4 VDD.n3 0.3365
R39 VDD.n3 VDD.n2 0.25325
R40 VDD VDD.n4 0.1685
R41 C.n0 C.t1 27.0524
R42 C.n0 C.t0 22.4673
R43 C C.n0 8.05427
R44 B.n0 B.t1 27.2111
R45 B.n0 B.t0 22.3086
R46 B B.n0 8.0566
R47 A.n0 A.t1 27.2905
R48 A.n0 A.t0 22.2292
R49 A A.n0 8.02646
R50 VNW.t4 VNW.t0 558.14
R51 VNW.t0 VNW.t1 343.024
R52 VNW.t2 VNW.t3 310.079
R53 VNW.t1 VNW.t2 310.079
R54 VNW.t5 VNW.t4 310.079
R55 VNW.t6 VNW.t5 310.079
R56 VNW VNW.t6 259.69
R57 VPW.t4 VPW.t0 2127.27
R58 VPW.t0 VPW.t1 1307.39
R59 VPW.t2 VPW.t3 1181.82
R60 VPW.t1 VPW.t2 1181.82
R61 VPW.t5 VPW.t4 1181.82
R62 VPW.t6 VPW.t5 1181.82
R63 VPW VPW.t6 989.774
C0 a_332_68# B 0.00698f
C1 VSS Y 0.26235f
C2 A VNW 0.09208f
C3 Y a_172_68# 0
C4 C a_28_440# 0.0081f
C5 VDD VNW 0.25399f
C6 Y B 0
C7 A a_28_440# 0.07442f
C8 a_332_68# VNW 0.4122f
C9 A C 0.00104f
C10 VSS a_172_68# 0.01248f
C11 VDD a_28_440# 0.19178f
C12 VDD C 0.02901f
C13 Y VNW 0.04365f
C14 VSS B 0.03227f
C15 a_332_68# a_28_440# 0.04896f
C16 a_172_68# B 0.0025f
C17 VDD A 0.01567f
C18 a_332_68# C 0.19083f
C19 a_332_68# A 0.01174f
C20 Y C 0
C21 VSS VNW 0.01054f
C22 a_332_68# VDD 0.41133f
C23 Y A 0
C24 VNW B 0.07586f
C25 Y VDD 0.66221f
C26 VSS a_28_440# 0.01381f
C27 a_172_68# a_28_440# 0.00248f
C28 VSS C 0.01669f
C29 a_332_68# Y 0.24255f
C30 B a_28_440# 0.04153f
C31 VSS A 0.03614f
C32 C B 0.09012f
C33 VSS VDD 0.03486f
C34 A B 0.09244f
C35 a_332_68# VSS 0.27526f
C36 VNW a_28_440# 0.01143f
C37 VDD B 0.01624f
C38 a_332_68# a_172_68# 0.00221f
C39 VNW C 0.08383f
C40 VSS VPW 0.34248f
C41 Y VPW 0.04452f
C42 VDD VPW 0.43437f
C43 C VPW 0.17008f
C44 B VPW 0.15167f
C45 A VPW 0.23473f
C46 VNW VPW 2.61862f
C47 a_28_440# VPW 0.01714f
C48 a_332_68# VPW 0.48147f
C49 VNW.t3 VPW 0.22535f
C50 VNW.t2 VPW 0.09667f
C51 VNW.t1 VPW 0.1018f
C52 VNW.t0 VPW 0.14047f
C53 VNW.t4 VPW 0.13533f
C54 VNW.t5 VPW 0.09667f
C55 VNW.t6 VPW 0.08881f
C56 A.t1 VPW 0.07514f
C57 A.t0 VPW 0.05373f
C58 A.n0 VPW 0.09913f
C59 B.t1 VPW 0.09759f
C60 B.t0 VPW 0.07014f
C61 B.n0 VPW 0.12901f
C62 C.t1 VPW 0.11395f
C63 C.t0 VPW 0.08273f
C64 C.n0 VPW 0.15122f
C65 VDD.t0 VPW 0.03557f
C66 VDD.t1 VPW 0.03557f
C67 VDD.n0 VPW 0.07135f
C68 VDD.t2 VPW 0.09121f
C69 VDD.t4 VPW 0.03557f
C70 VDD.t3 VPW 0.03557f
C71 VDD.n1 VPW 0.0783f
C72 VDD.t5 VPW 0.11172f
C73 VDD.n2 VPW 0.50625f
C74 VDD.n3 VPW 0.32991f
C75 VDD.n4 VPW 0.21744f
C76 Y.t2 VPW 0.04826f
C77 Y.t1 VPW 0.04826f
C78 Y.n0 VPW 0.10588f
C79 Y.t7 VPW 0.03497f
C80 Y.t6 VPW 0.03497f
C81 Y.n1 VPW 0.07104f
C82 Y.n2 VPW 0.23486f
C83 Y.t0 VPW 0.04826f
C84 Y.t3 VPW 0.06403f
C85 Y.n3 VPW 0.12166f
C86 Y.n4 VPW 0.19485f
C87 Y.t5 VPW 0.03497f
C88 Y.t4 VPW 0.0464f
C89 Y.n5 VPW 0.08137f
C90 Y.n6 VPW 0.03379f
C91 VSS.t5 VPW 0.01147f
C92 VSS.t3 VPW 0.01147f
C93 VSS.n0 VPW 0.02398f
C94 VSS.t4 VPW 0.03633f
C95 VSS.n1 VPW 0.20653f
C96 VSS.n2 VPW 0.15256f
C97 VSS.t2 VPW 0.02559f
C98 VSS.t1 VPW 0.02559f
C99 VSS.n3 VPW 0.05118f
C100 VSS.n4 VPW 0.038f
C101 VSS.t0 VPW 0.03336f
C102 VSS.n5 VPW 0.08235f
C103 VSS.n6 VPW 0.19329f
.ends

* NGSPICE file created from gf180mcu_as_sc_mcu7t3v3__ao21b_2.ext - technology: gf180mcuD

.subckt gf180mcu_as_sc_mcu7t3v3__ao21b_2 VDD VNW VPW VSS Y C B A
X0 a_364_440# C.t2 a_668_68# VNW.t3 pfet_03v3 ad=0.6072p pd=3.64u as=0.3588p ps=1.9u w=1.38u l=0.28u
X1 Y.t3 a_668_68# VDD.t5 VNW.t4 pfet_03v3 ad=0.3588p pd=1.9u as=0.6072p ps=3.64u w=1.38u l=0.28u
X2 VSS.t5 a_668_68# Y.t2 VPW.t5 nfet_03v3 ad=0.45p pd=2.9u as=0.26p ps=1.52u w=1u l=0.28u
X3 a_668_68# B.t1 a_508_68# VPW.t6 nfet_03v3 ad=0.26p pd=1.52u as=0.26p ps=1.52u w=1u l=0.28u
X4 VSS.t1 C.t0 a_668_68# VPW.t3 nfet_03v3 ad=0.58p pd=2.16u as=0.26p ps=1.52u w=1u l=0.28u
X5 a_220_68# A.t0 VSS.t0 VPW.t8 nfet_03v3 ad=0.44p pd=2.88u as=0.47p ps=2.94u w=1u l=0.28u
X6 Y.t1 a_668_68# VSS.t6 VPW.t4 nfet_03v3 ad=0.26p pd=1.52u as=0.58p ps=2.16u w=1u l=0.28u
X7 a_508_68# a_220_68# VSS.t3 VPW.t0 nfet_03v3 ad=0.26p pd=1.52u as=0.44p ps=2.88u w=1u l=0.28u
X8 a_220_68# A.t1 VDD.t2 VNW.t8 pfet_03v3 ad=0.6072p pd=3.64u as=0.6348p ps=3.68u w=1.38u l=0.28u
X9 VDD.t0 a_220_68# a_364_440# VNW.t0 pfet_03v3 ad=0.3588p pd=1.9u as=0.6072p ps=3.64u w=1.38u l=0.28u
X10 a_364_440# a_220_68# VDD.t1 VNW.t1 pfet_03v3 ad=0.3588p pd=1.9u as=0.3588p ps=1.9u w=1.38u l=0.28u
X11 a_668_68# C.t1 VSS.t4 VPW.t2 nfet_03v3 ad=0.26p pd=1.52u as=0.26p ps=1.52u w=1u l=0.28u
X12 VDD.t6 a_668_68# Y.t0 VNW.t5 pfet_03v3 ad=0.621p pd=3.66u as=0.3588p ps=1.9u w=1.38u l=0.28u
X13 a_668_68# C.t3 a_364_440# VNW.t2 pfet_03v3 ad=0.3588p pd=1.9u as=0.3588p ps=1.9u w=1.38u l=0.28u
X14 VSS.t2 a_220_68# a_828_68# VPW.t1 nfet_03v3 ad=0.26p pd=1.52u as=0.26p ps=1.52u w=1u l=0.28u
X15 a_364_440# B.t3 VDD.t4 VNW.t6 pfet_03v3 ad=0.3588p pd=1.9u as=0.3588p ps=1.9u w=1.38u l=0.28u
X16 a_828_68# B.t0 a_668_68# VPW.t7 nfet_03v3 ad=0.26p pd=1.52u as=0.26p ps=1.52u w=1u l=0.28u
X17 VDD.t3 B.t2 a_364_440# VNW.t7 pfet_03v3 ad=0.3588p pd=1.9u as=0.3588p ps=1.9u w=1.38u l=0.28u
R0 VSS.n0 VSS.t5 11.0901
R1 VSS.n5 VSS.t3 10.9684
R2 VSS.n4 VSS.t0 10.6759
R3 VSS.n6 VSS.n3 6.38659
R4 VSS.n1 VSS.t6 3.686
R5 VSS.n1 VSS.t1 3.623
R6 VSS.n2 VSS.n1 3.1505
R7 VSS.n3 VSS.t4 1.6385
R8 VSS.n3 VSS.t2 1.6385
R9 VSS.n0 VSS 1.133
R10 VSS VSS.n7 0.608227
R11 VSS.n6 VSS.n5 0.4805
R12 VSS.n7 VSS.n6 0.22325
R13 VSS.n5 VSS.n4 0.221
R14 VSS.n4 VSS 0.08
R15 VSS.n2 VSS.n0 0.0400455
R16 VSS.n7 VSS.n2 0.0395909
R17 Y.n2 Y.n1 6.3005
R18 Y.n2 Y.n0 3.15748
R19 Y.n1 Y.t2 1.6385
R20 Y.n1 Y.t1 1.6385
R21 Y.n0 Y.t0 1.31934
R22 Y.n0 Y.t3 1.31934
R23 Y Y.n2 0.0582358
R24 VDD.n2 VDD.t6 13.4599
R25 VDD.n2 VDD.t5 13.4002
R26 VDD.n4 VDD.n0 5.28659
R27 VDD.n3 VDD.n1 5.28659
R28 VDD.n5 VDD.t2 4.24775
R29 VDD.n0 VDD.t4 1.31934
R30 VDD.n0 VDD.t0 1.31934